data/VERIFIED cases/uiuc150bus.m
% Case saved by PowerWorld Simulator, version 23, build date October 31, 2023
function mpc = uiuc_150bus
mpc.version = '2';
mpc.baseMVA =  100.00;

%% bus data 
mpc.bus = [
1	3	0.00	0.00	0.00	0.00	1	1.0400000	0.000000	13.80	1	1.100	0.900
2	1	184.31	52.53	0.00	0.00	1	1.0015700	-13.322390	230.00	1	1.100	0.900
3	1	165.52	47.17	0.00	0.00	1	1.0115351	-12.276254	230.00	1	1.100	0.900
4	1	156.81	44.69	0.00	0.00	1	1.0080228	-13.594090	230.00	1	1.100	0.900
5	1	168.45	48.01	0.00	0.00	1	0.9977787	-15.467394	230.00	1	1.100	0.900
6	1	156.89	44.71	0.00	0.00	1	0.9967595	-14.398970	230.00	1	1.100	0.900
7	1	134.58	38.36	0.00	0.00	1	1.0070981	-12.431276	230.00	1	1.100	0.900
8	1	195.40	55.69	0.00	0.00	1	1.0229893	-11.034584	230.00	1	1.100	0.900
9	1	176.31	50.25	0.00	0.00	1	1.0012101	-16.005517	230.00	1	1.100	0.900
10	1	72.72	20.73	0.00	0.00	1	1.0210356	-11.140294	230.00	1	1.100	0.900
11	1	189.93	54.13	0.00	0.00	1	1.0316310	-8.301216	230.00	1	1.100	0.900
12	1	125.30	35.71	0.00	0.00	1	0.9988710	-12.623302	230.00	1	1.100	0.900
13	1	177.27	50.52	0.00	0.00	1	0.9901932	-15.742965	230.00	1	1.100	0.900
14	1	199.17	56.76	0.00	0.00	1	1.0236903	-9.689667	230.00	1	1.100	0.900
15	1	178.44	50.85	0.00	0.00	1	1.0135508	-11.772939	230.00	1	1.100	0.900
16	1	119.77	34.13	0.00	0.00	1	0.9938745	-16.759868	230.00	1	1.100	0.900
17	1	162.89	46.42	0.00	0.00	1	1.0145067	-11.738480	230.00	1	1.100	0.900
18	1	129.66	36.95	0.00	0.00	1	1.0116160	-13.162669	230.00	1	1.100	0.900
19	1	161.67	46.08	0.00	0.00	1	1.0089459	-13.262385	230.00	1	1.100	0.900
20	1	99.26	28.29	0.00	0.00	1	1.0132048	-10.397969	230.00	1	1.100	0.900
21	1	180.09	51.33	0.00	0.00	1	1.0063397	-13.184341	230.00	1	1.100	0.900
22	1	194.99	55.57	0.00	150.00	1	1.0165558	-12.552993	230.00	1	1.100	0.900
23	1	187.18	53.35	0.00	0.00	1	1.0185538	-11.925183	230.00	1	1.100	0.900
24	1	60.74	17.31	0.00	0.00	1	1.0363937	-6.355726	230.00	1	1.100	0.900
25	1	39.54	11.27	0.00	0.00	1	1.0236839	-11.032479	230.00	1	1.100	0.900
26	1	161.77	46.11	0.00	150.00	1	1.0043288	-18.024523	230.00	1	1.100	0.900
27	1	199.09	56.74	0.00	0.00	1	1.0296525	-9.947991	230.00	1	1.100	0.900
28	1	131.12	37.37	0.00	0.00	1	1.0023955	-13.970970	230.00	1	1.100	0.900
29	1	141.48	40.32	0.00	0.00	1	1.0090228	-13.236434	230.00	1	1.100	0.900
30	1	149.51	42.61	0.00	0.00	1	1.0090126	-13.580322	230.00	1	1.100	0.900
31	1	153.82	43.84	0.00	0.00	1	1.0158327	-9.472365	230.00	1	1.100	0.900
32	1	167.52	47.74	0.00	0.00	1	1.0274310	-7.525068	230.00	1	1.100	0.900
33	1	199.09	56.74	0.00	0.00	1	1.0301205	-8.908685	230.00	1	1.100	0.900
34	1	158.01	45.03	0.00	0.00	1	1.0196883	-8.644539	230.00	1	1.100	0.900
35	1	166.05	47.32	0.00	0.00	1	1.0319369	-6.849859	230.00	1	1.100	0.900
36	1	10.00	2.85	0.00	0.00	1	1.0237732	-8.355127	230.00	1	1.100	0.900
37	1	87.53	24.94	0.00	0.00	1	1.0219304	-9.271676	230.00	1	1.100	0.900
38	1	42.84	12.21	0.00	0.00	1	1.0140914	-10.620881	230.00	1	1.100	0.900
39	1	68.29	19.46	0.00	0.00	1	1.0099665	-13.844929	230.00	1	1.100	0.900
40	1	186.84	53.25	0.00	0.00	1	1.0289201	-7.351837	230.00	1	1.100	0.900
41	1	161.23	45.95	0.00	0.00	1	1.0192534	-8.723609	230.00	1	1.100	0.900
42	1	155.94	44.44	0.00	0.00	1	1.0198440	-15.527138	230.00	1	1.100	0.900
43	1	188.78	53.80	0.00	0.00	1	1.0230910	-15.088048	230.00	1	1.100	0.900
44	1	114.86	32.74	0.00	0.00	1	1.0219755	-14.854796	230.00	1	1.100	0.900
45	1	197.41	56.26	0.00	0.00	1	1.0244179	-15.046705	230.00	1	1.100	0.900
46	1	93.46	26.64	0.00	0.00	1	1.0238843	-14.515157	230.00	1	1.100	0.900
47	1	181.60	51.76	0.00	0.00	1	1.0166073	-15.878449	230.00	1	1.100	0.900
48	1	31.40	8.95	0.00	0.00	1	1.0211764	-15.601767	230.00	1	1.100	0.900
49	1	199.46	56.85	0.00	0.00	1	1.0221745	-11.907286	230.00	1	1.100	0.900
50	1	154.51	44.03	0.00	0.00	1	1.0090836	-13.251958	230.00	1	1.100	0.900
51	1	179.20	51.07	0.00	0.00	1	1.0175493	-14.584472	230.00	1	1.100	0.900
52	1	126.82	36.14	0.00	0.00	1	1.0103028	-13.803631	230.00	1	1.100	0.900
53	1	184.31	52.53	0.00	0.00	1	1.0250265	-9.999868	230.00	1	1.100	0.900
54	1	185.60	52.90	0.00	0.00	1	1.0235770	-13.669264	230.00	1	1.100	0.900
55	1	112.63	32.10	0.00	0.00	1	1.0093330	-12.755343	230.00	1	1.100	0.900
56	1	177.00	50.44	0.00	0.00	1	1.0099993	-13.564335	230.00	1	1.100	0.900
57	1	129.66	36.95	0.00	0.00	1	1.0181256	-11.242543	230.00	1	1.100	0.900
58	1	66.01	18.81	0.00	0.00	1	1.0096888	-14.859872	230.00	1	1.100	0.900
59	1	121.51	34.63	0.00	0.00	1	1.0265996	-9.742524	230.00	1	1.100	0.900
60	1	124.07	35.36	0.00	0.00	1	1.0097149	-14.702696	230.00	1	1.100	0.900
61	1	131.73	37.54	0.00	0.00	1	1.0139898	-11.626978	230.00	1	1.100	0.900
62	1	166.18	47.36	0.00	0.00	1	1.0173259	-11.464087	230.00	1	1.100	0.900
63	1	185.44	52.85	0.00	0.00	1	1.0207983	-11.787592	230.00	1	1.100	0.900
64	1	193.86	55.25	0.00	0.00	1	1.0202489	-11.518515	230.00	1	1.100	0.900
65	1	118.74	33.84	0.00	0.00	1	1.0119692	-12.325903	230.00	1	1.100	0.900
66	1	88.78	25.30	0.00	0.00	1	0.9974086	-16.016133	230.00	1	1.100	0.900
67	1	154.15	43.93	0.00	0.00	1	1.0071089	-14.189493	230.00	1	1.100	0.900
68	1	66.69	19.01	0.00	0.00	1	1.0045623	-13.221020	230.00	1	1.100	0.900
69	1	64.75	18.45	0.00	0.00	1	1.0159578	-13.187724	230.00	1	1.100	0.900
70	1	33.90	9.66	0.00	0.00	1	1.0206051	-12.289992	230.00	1	1.100	0.900
71	1	197.85	56.39	0.00	0.00	1	0.9975481	-16.272662	230.00	1	1.100	0.900
72	1	166.18	47.36	0.00	0.00	1	0.9937854	-16.532529	230.00	1	1.100	0.900
73	1	87.93	25.06	0.00	0.00	1	1.0115848	-12.748248	230.00	1	1.100	0.900
74	1	173.84	49.55	0.00	0.00	1	0.9935086	-16.869345	230.00	1	1.100	0.900
75	1	146.93	41.87	0.00	0.00	1	0.9897318	-17.266521	230.00	1	1.100	0.900
76	1	168.55	48.04	0.00	0.00	1	0.9965936	-16.925454	230.00	1	1.100	0.900
77	1	147.63	42.08	0.00	0.00	1	0.9934875	-17.434384	230.00	1	1.100	0.900
78	1	177.72	50.65	0.00	0.00	1	0.9914027	-17.271069	230.00	1	1.100	0.900
79	1	191.23	54.50	0.00	150.00	1	1.0080180	-15.688676	230.00	1	1.100	0.900
80	1	167.84	47.83	0.00	0.00	1	0.9971265	-16.828992	230.00	1	1.100	0.900
81	1	163.74	46.67	0.00	0.00	1	0.9990904	-16.784651	230.00	1	1.100	0.900
82	1	152.56	43.48	0.00	0.00	1	0.9946075	-16.993629	230.00	1	1.100	0.900
83	1	83.51	23.80	0.00	0.00	1	1.0066679	-12.395690	230.00	1	1.100	0.900
84	1	67.18	19.15	0.00	0.00	1	1.0169977	-9.709042	230.00	1	1.100	0.900
85	1	64.87	18.49	0.00	0.00	1	1.0059877	-12.232788	230.00	1	1.100	0.900
86	1	186.90	53.27	0.00	0.00	1	1.0319869	-9.718451	230.00	1	1.100	0.900
87	1	96.15	27.40	0.00	0.00	1	1.0193662	-12.676450	230.00	1	1.100	0.900
88	1	65.71	18.73	0.00	0.00	1	1.0141485	-13.706719	230.00	1	1.100	0.900
89	1	179.49	51.15	0.00	0.00	1	0.9890708	-18.750920	230.00	1	1.100	0.900
90	1	198.93	56.70	0.00	0.00	1	1.0292647	-9.961516	230.00	1	1.100	0.900
91	1	65.65	18.71	0.00	0.00	1	1.0221695	-11.258293	230.00	1	1.100	0.900
92	1	0.00	0.00	0.00	0.00	1	1.0386125	-8.562273	500.00	1	1.100	0.900
93	1	0.00	0.00	0.00	0.00	1	1.0415275	-10.864033	500.00	1	1.100	0.900
94	1	0.00	0.00	0.00	0.00	1	1.0491375	-3.806556	500.00	1	1.100	0.900
95	1	0.00	0.00	0.00	0.00	1	1.0484863	-6.892177	500.00	1	1.100	0.900
96	1	0.00	0.00	0.00	0.00	1	1.0380045	-8.117346	500.00	1	1.100	0.900
97	1	0.00	0.00	0.00	0.00	1	1.0402428	-12.094755	500.00	1	1.100	0.900
98	1	0.00	0.00	0.00	0.00	1	1.0458487	-5.453604	500.00	1	1.100	0.900
99	1	0.00	0.00	0.00	0.00	1	1.0260268	-11.403434	500.00	1	1.100	0.900
100	1	0.00	0.00	0.00	0.00	1	1.0394643	-8.114356	500.00	1	1.100	0.900
101	1	0.00	0.00	0.00	0.00	1	1.0398503	-7.432964	500.00	1	1.100	0.900
102	1	0.00	0.00	0.00	0.00	1	1.0394840	-7.972623	500.00	1	1.100	0.900
103	1	0.00	0.00	0.00	0.00	1	1.0373338	-12.663087	500.00	1	1.100	0.900
104	1	0.00	0.00	0.00	0.00	1	1.0269831	-11.119258	500.00	1	1.100	0.900
105	1	0.00	0.00	0.00	0.00	1	1.0443562	-6.828094	500.00	1	1.100	0.900
106	1	0.00	0.00	0.00	0.00	1	1.0425755	-7.020808	500.00	1	1.100	0.900
107	1	0.00	0.00	0.00	0.00	1	1.0464586	-6.049626	500.00	1	1.100	0.900
108	1	0.00	0.00	0.00	0.00	1	1.0449923	-5.764176	500.00	1	1.100	0.900
109	1	0.00	0.00	0.00	0.00	1	1.0396909	-8.905938	500.00	1	1.100	0.900
110	2	0.00	0.00	0.00	0.00	1	1.0400000	-3.630643	13.80	1	1.100	0.900
111	2	0.00	0.00	0.00	0.00	1	1.0400000	-3.630643	13.80	1	1.100	0.900
112	2	0.00	0.00	0.00	0.00	1	1.0400000	-3.630643	13.80	1	1.100	0.900
113	2	0.00	0.00	0.00	0.00	1	1.0400000	-8.097089	13.80	1	1.100	0.900
114	2	0.00	0.00	0.00	0.00	1	1.0400000	-8.097089	13.80	1	1.100	0.900
115	2	0.00	0.00	0.00	0.00	1	1.0400000	-8.097089	13.80	1	1.100	0.900
116	2	0.00	0.00	0.00	0.00	1	1.0400000	-0.004240	13.80	1	1.100	0.900
117	2	0.00	0.00	0.00	0.00	1	1.0400000	-0.004240	13.80	1	1.100	0.900
118	2	0.00	0.00	0.00	0.00	1	1.0400000	-0.004240	13.80	1	1.100	0.900
119	2	0.00	0.00	0.00	0.00	1	1.0400000	-0.004241	13.80	1	1.100	0.900
120	2	0.00	0.00	0.00	0.00	1	1.0400000	-2.822212	13.80	1	1.100	0.900
121	2	0.00	0.00	0.00	0.00	1	1.0400000	-2.822212	13.80	1	1.100	0.900
122	2	0.00	0.00	0.00	0.00	1	1.0400000	-2.822211	13.80	1	1.100	0.900
123	2	0.00	0.00	0.00	0.00	1	1.0400000	-2.822211	13.80	1	1.100	0.900
124	2	0.00	0.00	0.00	0.00	1	1.0400000	-4.973858	13.80	1	1.100	0.900
125	2	0.00	0.00	0.00	0.00	1	1.0400000	-4.973858	13.80	1	1.100	0.900
126	2	0.00	0.00	0.00	0.00	1	1.0400000	-4.973858	13.80	1	1.100	0.900
127	2	0.00	0.00	0.00	0.00	1	1.0400000	-4.973858	13.80	1	1.100	0.900
128	2	0.00	0.00	0.00	0.00	1	1.0400000	-4.973858	13.80	1	1.100	0.900
129	2	0.00	0.00	0.00	0.00	1	1.0400000	-4.835853	13.80	1	1.100	0.900
130	2	0.00	0.00	0.00	0.00	1	1.0400000	0.091304	13.80	1	1.100	0.900
131	2	0.00	0.00	0.00	0.00	1	1.0400000	0.091304	13.80	1	1.100	0.900
132	2	0.00	0.00	0.00	0.00	1	1.0400000	0.091304	13.80	1	1.100	0.900
133	2	0.00	0.00	0.00	0.00	1	1.0400000	0.091304	13.80	1	1.100	0.900
134	2	0.00	0.00	0.00	0.00	1	1.0400000	0.091304	13.80	1	1.100	0.900
135	2	0.00	0.00	0.00	0.00	1	1.0400000	-8.497941	13.80	1	1.100	0.900
136	1	0.00	0.00	0.00	0.00	1	1.0291222	-10.927838	230.00	1	1.100	0.900
137	1	0.00	0.00	0.00	0.00	1	1.0452186	-7.839897	500.00	1	1.100	0.900
138	1	0.00	0.00	0.00	0.00	1	1.0340918	-8.659737	230.00	1	1.100	0.900
139	1	0.00	0.00	0.00	0.00	1	1.0483586	-5.683955	500.00	1	1.100	0.900
140	1	0.00	0.00	0.00	0.00	1	1.0235376	-11.394361	230.00	1	1.100	0.900
141	1	0.00	0.00	0.00	0.00	1	1.0265777	-10.014119	230.00	1	1.100	0.900
142	1	0.00	0.00	0.00	0.00	1	1.0444342	-6.497759	500.00	1	1.100	0.900
143	1	0.00	0.00	0.00	0.00	1	1.0403182	-5.762745	230.00	1	1.100	0.900
144	1	0.00	0.00	0.00	0.00	1	1.0540353	-2.858283	500.00	1	1.100	0.900
145	1	0.00	0.00	0.00	0.00	1	1.0372879	-6.028652	230.00	1	1.100	0.900
146	1	0.00	0.00	0.00	0.00	1	1.0525209	-2.764785	500.00	1	1.100	0.900
147	1	0.00	0.00	0.00	0.00	1	1.0340916	-10.566876	230.00	1	1.100	0.900
148	1	0.00	0.00	0.00	0.00	1	1.0478379	-7.698307	500.00	1	1.100	0.900
149	1	0.00	0.00	0.00	0.00	1	1.0345235	-12.909484	230.00	1	1.100	0.900
150	1	0.00	0.00	0.00	0.00	1	1.0449093	-10.963553	500.00	1	1.100	0.900
];

%% generator data 
mpc.gen = [
1	1098.17	140.74	952.77	-186.22	1.0400	2246.86	1	2042.60	612.78	0.00	0.00	0.00	0.00	0.00	0.00	0	0	0	0	20.4260
110	366.71	113.92	382.30	-43.96	1.0400	751.41	1	683.10	204.93	0.00	0.00	0.00	0.00	0.00	0.00	0	0	0	0	6.8310
111	243.83	75.75	174.64	-22.21	1.0400	499.62	1	454.20	136.26	0.00	0.00	0.00	0.00	0.00	0.00	0	0	0	0	4.5420
112	692.09	215.01	601.35	-117.54	1.0400	1418.12	1	1289.20	386.76	0.00	0.00	0.00	0.00	0.00	0.00	0	0	0	0	12.8920
113	340.03	102.57	354.48	-40.77	1.0400	696.74	1	633.40	190.02	0.00	0.00	0.00	0.00	0.00	0.00	0	0	0	0	6.3340
114	340.03	102.57	354.48	-40.77	1.0400	696.74	1	633.40	190.02	0.00	0.00	0.00	0.00	0.00	0.00	0	0	0	0	6.3340
115	147.74	44.56	105.81	-13.46	1.0400	302.72	1	275.20	82.56	0.00	0.00	0.00	0.00	0.00	0.00	0	0	0	0	2.7520
116	364.62	46.79	380.11	-43.71	1.0400	747.12	1	679.20	203.76	0.00	0.00	0.00	0.00	0.00	0.00	0	0	0	0	6.7920
117	364.62	46.79	380.11	-43.71	1.0400	747.12	1	679.20	203.76	0.00	0.00	0.00	0.00	0.00	0.00	0	0	0	0	6.7920
118	364.62	46.79	380.11	-43.71	1.0400	747.12	1	679.20	203.76	0.00	0.00	0.00	0.00	0.00	0.00	0	0	0	0	6.7920
119	1096.54	140.70	952.77	-186.22	1.0400	2246.86	1	2042.60	612.78	0.00	0.00	0.00	0.00	0.00	0.00	0	0	0	0	20.4260
120	238.22	56.25	170.62	-21.70	1.0400	488.13	1	443.75	133.12	0.00	0.00	0.00	0.00	0.00	0.00	0	0	0	0	4.4375
121	238.22	56.25	170.62	-21.70	1.0400	488.13	1	443.75	133.12	0.00	0.00	0.00	0.00	0.00	0.00	0	0	0	0	4.4375
122	711.31	167.96	618.04	-120.80	1.0400	1457.50	1	1325.00	397.50	0.00	0.00	0.00	0.00	0.00	0.00	0	0	0	0	13.2500
123	711.31	167.96	618.04	-120.80	1.0400	1457.50	1	1325.00	397.50	0.00	0.00	0.00	0.00	0.00	0.00	0	0	0	0	13.2500
124	363.73	107.58	379.19	-43.61	1.0400	745.30	1	677.55	203.26	0.00	0.00	0.00	0.00	0.00	0.00	0	0	0	0	6.7755
125	363.73	107.58	379.19	-43.61	1.0400	745.30	1	677.55	203.26	0.00	0.00	0.00	0.00	0.00	0.00	0	0	0	0	6.7755
126	363.73	107.58	379.19	-43.61	1.0400	745.30	1	677.55	203.26	0.00	0.00	0.00	0.00	0.00	0.00	0	0	0	0	6.7755
127	363.73	107.58	379.19	-43.61	1.0400	745.30	1	677.55	203.26	0.00	0.00	0.00	0.00	0.00	0.00	0	0	0	0	6.7755
128	544.89	161.16	473.45	-92.54	1.0400	1116.50	1	1015.00	304.50	0.00	0.00	0.00	0.00	0.00	0.00	0	0	0	0	10.1500
129	184.73	45.45	132.30	-16.83	1.0400	378.51	1	344.10	103.23	0.00	0.00	0.00	0.00	0.00	0.00	0	0	0	0	3.4410
130	427.86	67.21	306.44	-38.98	1.0400	876.70	1	797.00	239.10	0.00	0.00	0.00	0.00	0.00	0.00	0	0	0	0	7.9700
131	427.86	67.21	306.44	-38.98	1.0400	876.70	1	797.00	239.10	0.00	0.00	0.00	0.00	0.00	0.00	0	0	0	0	7.9700
132	427.86	67.21	306.44	-38.98	1.0400	876.70	1	797.00	239.10	0.00	0.00	0.00	0.00	0.00	0.00	0	0	0	0	7.9700
133	996.07	156.46	683.44	-150.88	1.0400	2040.99	1	1855.45	556.63	0.00	0.00	0.00	0.00	0.00	0.00	0	0	0	0	18.5545
134	996.07	156.46	683.44	-150.88	1.0400	2040.99	1	1855.45	556.63	0.00	0.00	0.00	0.00	0.00	0.00	0	0	0	0	18.5545
135	24.53	17.36	17.57	-2.24	1.0400	50.27	1	45.70	13.71	0.00	0.00	0.00	0.00	0.00	0.00	0	0	0	0	0.4570
];

%% generator cost data
mpc.gencost = [
2	0	0	4	0	0	1	0
2	0	0	4	0	0	1	0
2	0	0	4	0	0	1	0
2	0	0	4	0	0	1	0
2	0	0	4	0	0	1	0
2	0	0	4	0	0	1	0
2	0	0	4	0	0	1	0
2	0	0	4	0	0	1	0
2	0	0	4	0	0	1	0
2	0	0	4	0	0	1	0
2	0	0	4	0	0	1	0
2	0	0	4	0	0	1	0
2	0	0	4	0	0	1	0
2	0	0	4	0	0	1	0
2	0	0	4	0	0	1	0
2	0	0	4	0	0	1	0
2	0	0	4	0	0	1	0
2	0	0	4	0	0	1	0
2	0	0	4	0	0	1	0
2	0	0	4	0	0	1	0
2	0	0	4	0	0	1	0
2	0	0	4	0	0	1	0
2	0	0	4	0	0	1	0
2	0	0	4	0	0	1	0
2	0	0	4	0	0	1	0
2	0	0	4	0	0	1	0
2	0	0	4	0	0	1	0
];

%% branch data
mpc.branch = [
144	1	0.000122	0.004896	0.00000	2042.60	9999.00	9999.00	1.02000	0.000	1	0.00	0.00	-1096.78	-85.26	1098.17	140.74
2	14	0.005462	0.038899	0.07137	402.36	9999.00	9999.00	0.00000	0.000	1	0.00	0.00	-170.89	-31.24	172.52	35.55
2	21	0.003179	0.022642	0.04154	402.36	9999.00	9999.00	0.00000	0.000	1	0.00	0.00	-13.42	-21.28	13.44	17.22
19	3	0.005448	0.038804	0.07119	402.36	9999.00	9999.00	0.00000	0.000	1	0.00	0.00	-45.26	-3.61	45.37	-2.87
141	3	0.002808	0.020001	0.03669	402.36	9999.00	9999.00	0.00000	0.000	1	0.00	0.00	212.16	49.53	-210.89	-44.30
4	18	0.001177	0.008383	0.01538	402.36	9999.00	9999.00	0.00000	0.000	1	0.00	0.00	-95.72	-30.20	95.84	29.46
4	19	0.001471	0.010477	0.01922	402.36	9999.00	9999.00	0.00000	0.000	1	0.00	0.00	-56.31	-1.79	56.36	0.16
4	30	0.001109	0.007895	0.01449	402.36	9999.00	9999.00	0.00000	0.000	1	0.00	0.00	-4.78	-12.70	4.78	11.24
5	16	0.002545	0.018123	0.03325	402.36	9999.00	9999.00	0.00000	0.000	1	0.00	0.00	124.19	3.79	-123.80	-4.28
5	30	0.001630	0.011612	0.02130	402.36	9999.00	9999.00	0.00000	0.000	1	0.00	0.00	-292.64	-51.80	294.08	59.94
6	13	0.002818	0.020069	0.03682	402.36	9999.00	9999.00	0.00000	0.000	1	0.00	0.00	117.80	15.60	-117.40	-16.37
6	14	0.005208	0.037091	0.06805	402.36	9999.00	9999.00	0.00000	0.000	1	0.00	0.00	-230.18	-34.15	233.01	47.33
6	28	0.002552	0.018174	0.03334	402.36	9999.00	9999.00	0.00000	0.000	1	0.00	0.00	-44.51	-26.16	44.57	23.30
7	8	0.006599	0.046999	0.08623	402.36	9999.00	9999.00	0.00000	0.000	1	0.00	0.00	-57.00	-29.77	57.25	22.69
7	38	0.005889	0.041942	0.07695	402.36	9999.00	9999.00	0.00000	0.000	1	0.00	0.00	-77.58	-8.59	77.93	3.22
8	23	0.002242	0.015965	0.02929	402.36	9999.00	9999.00	0.00000	0.000	1	0.00	0.00	103.50	13.14	-103.27	-14.53
8	102	0.000200	0.016000	0.00000	1000.00	9999.00	9999.00	1.00000	0.000	1	0.00	0.00	-356.15	-91.52	356.41	112.20
9	23	0.005679	0.040447	0.07421	402.36	9999.00	9999.00	0.00000	0.000	1	0.00	0.00	-180.97	-14.85	182.83	20.55
9	26	0.004682	0.033347	0.06118	402.36	9999.00	9999.00	0.00000	0.000	1	0.00	0.00	103.15	-25.04	-102.63	22.59
9	39	0.005487	0.039081	0.07170	402.36	9999.00	9999.00	0.00000	0.000	1	0.00	0.00	-98.50	-10.36	99.03	6.91
10	25	0.005913	0.042110	0.07726	402.36	9999.00	9999.00	0.00000	0.000	1	0.00	0.00	-5.46	-9.68	5.47	1.63
10	141	0.004374	0.031155	0.05716	402.36	9999.00	9999.00	0.00000	0.000	1	0.00	0.00	-67.26	-11.05	67.45	6.43
11	14	0.002525	0.017981	0.03299	402.36	9999.00	9999.00	0.00000	0.000	1	0.00	0.00	146.07	25.02	-145.55	-24.77
11	98	0.000200	0.016000	0.00000	1000.00	9999.00	9999.00	1.00000	0.000	1	0.00	0.00	-336.00	-79.15	336.22	97.06
12	13	0.005159	0.036740	0.06741	402.36	9999.00	9999.00	0.00000	0.000	1	0.00	0.00	147.47	3.51	-146.35	-2.15
12	143	0.006507	0.046340	0.08502	402.36	9999.00	9999.00	0.00000	0.000	1	0.00	0.00	-272.78	-39.22	277.71	65.51
13	16	0.002703	0.019252	0.03532	402.36	9999.00	9999.00	0.00000	0.000	1	0.00	0.00	86.47	-32.00	-86.24	30.17
14	108	0.000200	0.016000	0.00000	1000.00	9999.00	9999.00	1.00000	0.000	1	0.00	0.00	-459.15	-114.87	459.58	149.07
15	17	0.002500	0.017807	0.03267	402.36	9999.00	9999.00	0.00000	0.000	1	0.00	0.00	-4.15	-6.53	4.16	3.18
141	15	0.002664	0.018974	0.03481	402.36	9999.00	9999.00	0.00000	0.000	1	0.00	0.00	175.12	46.64	-174.28	-44.32
16	26	0.003143	0.022386	0.04107	402.36	9999.00	9999.00	0.00000	0.000	1	0.00	0.00	90.27	-60.03	-89.90	58.54
17	21	0.001848	0.013161	0.02415	402.36	9999.00	9999.00	0.00000	0.000	1	0.00	0.00	200.95	35.96	-200.20	-33.09
141	17	0.002469	0.017584	0.03226	402.36	9999.00	9999.00	0.00000	0.000	1	0.00	0.00	184.85	45.50	-184.00	-42.79
141	17	0.002469	0.017584	0.03226	402.36	9999.00	9999.00	0.00000	0.000	1	0.00	0.00	184.85	45.50	-184.00	-42.79
18	22	0.000711	0.005060	0.00928	402.36	9999.00	9999.00	0.00000	0.000	1	0.00	0.00	-225.50	-66.41	225.88	68.19
19	23	0.002017	0.014363	0.02635	402.36	9999.00	9999.00	0.00000	0.000	1	0.00	0.00	-172.77	-42.63	173.39	44.37
83	20	0.006420	0.045723	0.08389	402.36	9999.00	9999.00	0.00000	0.000	1	0.00	0.00	-78.05	-6.33	78.44	0.52
20	143	0.006862	0.048869	0.08966	402.36	9999.00	9999.00	0.00000	0.000	1	0.00	0.00	-177.70	-28.81	179.85	34.67
21	29	0.001122	0.007992	0.01466	402.36	9999.00	9999.00	0.00000	0.000	1	0.00	0.00	6.68	-35.46	-6.66	34.07
22	29	0.000589	0.004193	0.00769	402.36	9999.00	9999.00	0.00000	0.000	1	0.00	0.00	311.55	140.24	-310.89	-136.28
22	30	0.001194	0.008502	0.01560	402.36	9999.00	9999.00	0.00000	0.000	1	0.00	0.00	224.81	59.76	-224.18	-56.90
22	30	0.001194	0.008502	0.01560	402.36	9999.00	9999.00	0.00000	0.000	1	0.00	0.00	224.81	59.76	-224.18	-56.90
22	101	0.000200	0.016000	0.00000	1000.00	9999.00	9999.00	1.00000	0.000	1	0.00	0.00	-591.02	-114.25	591.72	170.36
22	101	0.000200	0.016000	0.00000	1000.00	9999.00	9999.00	1.00000	0.000	1	0.00	0.00	-591.02	-114.25	591.72	170.36
23	96	0.000200	0.016000	0.00000	1000.00	9999.00	9999.00	1.00000	0.000	1	0.00	0.00	-440.13	-103.73	440.52	135.27
84	24	0.005014	0.035711	0.06552	402.36	9999.00	9999.00	0.00000	0.000	1	0.00	0.00	-176.22	-28.83	177.75	32.87
24	143	0.000677	0.004820	0.00884	402.36	9999.00	9999.00	0.00000	0.000	1	0.00	0.00	-238.49	-50.18	238.87	51.89
90	25	0.005144	0.036633	0.06721	402.36	9999.00	9999.00	0.00000	0.000	1	0.00	0.00	54.95	4.91	-54.80	-10.92
91	25	0.006110	0.043513	0.07983	402.36	9999.00	9999.00	0.00000	0.000	1	0.00	0.00	-9.78	-6.34	9.79	-1.98
89	26	0.006606	0.047050	0.08632	402.36	9999.00	9999.00	0.00000	0.000	1	0.00	0.00	-30.64	-31.82	30.76	24.07
27	106	0.000200	0.016000	0.00000	1000.00	9999.00	9999.00	1.00000	0.000	1	0.00	0.00	-343.50	-70.12	343.73	88.66
140	27	0.002625	0.018697	0.03430	402.36	9999.00	9999.00	0.00000	0.000	1	0.00	0.00	-143.89	-13.27	144.41	13.38
28	29	0.001088	0.007751	0.01422	402.36	9999.00	9999.00	0.00000	0.000	1	0.00	0.00	-175.70	-60.67	176.07	61.90
31	38	0.005611	0.039959	0.07331	402.36	9999.00	9999.00	0.00000	0.000	1	0.00	0.00	51.36	-6.05	-51.21	-0.48
31	40	0.003581	0.025505	0.04679	402.36	9999.00	9999.00	0.00000	0.000	1	0.00	0.00	-155.49	-29.90	156.36	31.17
31	41	0.003882	0.027644	0.05072	402.36	9999.00	9999.00	0.00000	0.000	1	0.00	0.00	-49.69	-7.89	49.78	3.31
32	36	0.008565	0.060997	0.11191	402.36	9999.00	9999.00	0.00000	0.000	1	0.00	0.00	25.37	-3.13	-25.32	-8.27
32	40	0.001776	0.012647	0.02320	402.36	9999.00	9999.00	0.00000	0.000	1	0.00	0.00	-26.44	-9.57	26.46	7.21
145	32	0.002416	0.017206	0.03157	402.36	9999.00	9999.00	0.00000	0.000	1	0.00	0.00	167.10	36.38	-166.44	-35.04
33	37	0.005392	0.038403	0.07046	402.36	9999.00	9999.00	0.00000	0.000	1	0.00	0.00	20.06	15.47	-20.02	-22.61
61	33	0.006069	0.043224	0.07930	402.36	9999.00	9999.00	0.00000	0.000	1	0.00	0.00	-117.23	-22.74	118.06	20.38
33	107	0.000200	0.016000	0.00000	1000.00	9999.00	9999.00	1.00000	0.000	1	0.00	0.00	-337.21	-92.59	337.44	111.03
35	34	0.003342	0.023801	0.04367	402.36	9999.00	9999.00	0.00000	0.000	1	0.00	0.00	143.39	32.82	-142.71	-32.54
34	36	0.005271	0.037537	0.06887	402.36	9999.00	9999.00	0.00000	0.000	1	0.00	0.00	-15.30	-12.49	15.31	5.42
35	37	0.004599	0.032757	0.06010	402.36	9999.00	9999.00	0.00000	0.000	1	0.00	0.00	138.14	11.80	-137.31	-12.20
35	145	0.000991	0.007056	0.01295	402.36	9999.00	9999.00	0.00000	0.000	1	0.00	0.00	-223.79	-45.97	224.28	48.04
35	145	0.000991	0.007056	0.01295	402.36	9999.00	9999.00	0.00000	0.000	1	0.00	0.00	-223.79	-45.97	224.28	48.04
37	38	0.005043	0.035916	0.06589	402.36	9999.00	9999.00	0.00000	0.000	1	0.00	0.00	69.81	9.86	-69.56	-14.95
140	39	0.003785	0.026956	0.04946	402.36	9999.00	9999.00	0.00000	0.000	1	0.00	0.00	168.38	28.80	-167.32	-26.37
40	41	0.001726	0.012292	0.02255	402.36	9999.00	9999.00	0.00000	0.000	1	0.00	0.00	211.79	52.43	-211.01	-49.26
40	94	0.000200	0.016000	0.00000	1000.00	9999.00	9999.00	1.00000	0.000	1	0.00	0.00	-418.60	-111.87	418.95	140.24
145	40	0.002183	0.015546	0.02852	402.36	9999.00	9999.00	0.00000	0.000	1	0.00	0.00	163.40	33.18	-162.84	-32.20
42	43	0.001334	0.009498	0.01743	402.36	9999.00	9999.00	0.00000	0.000	1	0.00	0.00	-87.31	-23.19	87.42	22.11
44	42	0.005845	0.041629	0.07638	402.36	9999.00	9999.00	0.00000	0.000	1	0.00	0.00	29.56	-2.73	-29.51	-4.88
45	42	0.003312	0.023587	0.04328	402.36	9999.00	9999.00	0.00000	0.000	1	0.00	0.00	39.18	12.25	-39.12	-16.38
47	43	0.002910	0.020728	0.03803	402.36	9999.00	9999.00	0.00000	0.000	1	0.00	0.00	-72.19	-23.15	72.35	20.33
43	97	0.000200	0.016000	0.00000	1000.00	9999.00	9999.00	1.00000	0.000	1	0.00	0.00	-348.55	-96.24	348.80	116.23
44	149	0.003586	0.025536	0.04685	402.36	9999.00	9999.00	0.00000	0.000	1	0.00	0.00	-144.42	-30.00	145.16	30.33
45	48	0.003601	0.025649	0.04706	402.36	9999.00	9999.00	0.00000	0.000	1	0.00	0.00	40.56	4.97	-40.50	-9.48
45	103	0.000200	0.016000	0.00000	1000.00	9999.00	9999.00	1.00000	0.000	1	0.00	0.00	-277.14	-73.48	277.30	86.02
46	47	0.003536	0.025183	0.04620	402.36	9999.00	9999.00	0.00000	0.000	1	0.00	0.00	100.67	14.20	-100.32	-16.51
46	149	0.002210	0.015736	0.02887	402.36	9999.00	9999.00	0.00000	0.000	1	0.00	0.00	-194.13	-40.84	194.96	43.67
47	48	0.008579	0.061102	0.11210	402.36	9999.00	9999.00	0.00000	0.000	1	0.00	0.00	-9.09	-12.10	9.10	0.53
49	52	0.003075	0.021900	0.04018	402.36	9999.00	9999.00	0.00000	0.000	1	0.00	0.00	161.02	33.29	-160.22	-31.74
49	63	0.002380	0.016949	0.03110	402.36	9999.00	9999.00	0.00000	0.000	1	0.00	0.00	-11.47	8.30	11.47	-11.51
49	109	0.000200	0.016000	0.00000	1000.00	9999.00	9999.00	1.00000	0.000	1	0.00	0.00	-349.01	-98.43	349.26	118.57
50	55	0.004906	0.034940	0.06410	402.36	9999.00	9999.00	0.00000	0.000	1	0.00	0.00	-24.86	-0.38	24.89	-5.93
50	56	0.002613	0.018612	0.03415	402.36	9999.00	9999.00	0.00000	0.000	1	0.00	0.00	28.60	-10.64	-28.58	7.32
50	64	0.002842	0.020238	0.03713	402.36	9999.00	9999.00	0.00000	0.000	1	0.00	0.00	-158.25	-33.01	158.98	34.36
51	54	0.003223	0.022951	0.04211	402.36	9999.00	9999.00	0.00000	0.000	1	0.00	0.00	-74.68	-17.84	74.87	14.74
51	58	0.005529	0.039377	0.07224	402.36	9999.00	9999.00	0.00000	0.000	1	0.00	0.00	15.10	14.48	-15.07	-21.69
51	149	0.003814	0.027162	0.04983	402.36	9999.00	9999.00	0.00000	0.000	1	0.00	0.00	-119.62	-47.72	120.22	46.76
52	56	0.002407	0.017139	0.03145	402.36	9999.00	9999.00	0.00000	0.000	1	0.00	0.00	-24.13	3.62	24.15	-6.73
52	60	0.003855	0.027458	0.05038	402.36	9999.00	9999.00	0.00000	0.000	1	0.00	0.00	57.53	-8.03	-57.40	3.79
53	62	0.002048	0.014585	0.02676	402.36	9999.00	9999.00	0.00000	0.000	1	0.00	0.00	186.94	28.80	-186.24	-26.61
53	138	0.001933	0.013765	0.02525	402.36	9999.00	9999.00	0.00000	0.000	1	0.00	0.00	-185.62	-40.66	186.29	42.70
53	138	0.001933	0.013765	0.02525	402.36	9999.00	9999.00	0.00000	0.000	1	0.00	0.00	-185.62	-40.66	186.29	42.70
54	60	0.004251	0.030274	0.05554	402.36	9999.00	9999.00	0.00000	0.000	1	0.00	0.00	66.91	35.12	-66.67	-39.15
54	93	0.000200	0.016000	0.00000	1000.00	9999.00	9999.00	1.00000	0.000	1	0.00	0.00	-327.38	-102.76	327.60	120.74
55	138	0.007778	0.055394	0.10163	402.36	9999.00	9999.00	0.00000	0.000	1	0.00	0.00	-137.52	-26.17	139.00	26.08
56	58	0.006235	0.044405	0.08147	402.36	9999.00	9999.00	0.00000	0.000	1	0.00	0.00	51.10	-10.04	-50.94	2.88
56	63	0.002058	0.014657	0.02689	402.36	9999.00	9999.00	0.00000	0.000	1	0.00	0.00	-223.66	-41.00	224.70	45.64
57	59	0.005490	0.039096	0.07173	402.36	9999.00	9999.00	0.00000	0.000	1	0.00	0.00	-71.54	-14.82	71.82	9.30
57	90	0.005920	0.042158	0.07735	402.36	9999.00	9999.00	0.00000	0.000	1	0.00	0.00	-58.11	-22.13	58.33	15.53
59	138	0.001504	0.010710	0.01965	402.36	9999.00	9999.00	0.00000	0.000	1	0.00	0.00	-193.33	-43.93	193.89	45.83
61	62	0.003234	0.023029	0.04225	402.36	9999.00	9999.00	0.00000	0.000	1	0.00	0.00	-14.51	-14.81	14.52	10.53
62	64	0.001413	0.010063	0.01846	402.36	9999.00	9999.00	0.00000	0.000	1	0.00	0.00	5.54	-31.28	-5.53	29.45
63	64	0.001393	0.009919	0.01820	402.36	9999.00	9999.00	0.00000	0.000	1	0.00	0.00	-47.56	11.50	47.59	-13.17
63	92	0.000200	0.016000	0.00000	1000.00	9999.00	9999.00	1.00000	0.000	1	0.00	0.00	-374.05	-98.48	374.33	121.45
64	100	0.000200	0.016000	0.00000	1000.00	9999.00	9999.00	1.00000	0.000	1	0.00	0.00	-394.90	-105.90	395.22	131.59
65	73	0.004658	0.033177	0.06087	402.36	9999.00	9999.00	0.00000	0.000	1	0.00	0.00	22.48	-5.02	-22.45	-1.05
65	83	0.005024	0.035782	0.06565	402.36	9999.00	9999.00	0.00000	0.000	1	0.00	0.00	5.47	10.87	-5.45	-17.47
65	86	0.004713	0.033564	0.06158	402.36	9999.00	9999.00	0.00000	0.000	1	0.00	0.00	-146.68	-39.69	147.73	40.75
66	67	0.003900	0.027773	0.05095	402.36	9999.00	9999.00	0.00000	0.000	1	0.00	0.00	-117.60	-19.02	118.16	17.84
66	71	0.002119	0.015094	0.02769	402.36	9999.00	9999.00	0.00000	0.000	1	0.00	0.00	28.82	-6.28	-28.81	3.66
67	75	0.005275	0.037569	0.06893	402.36	9999.00	9999.00	0.00000	0.000	1	0.00	0.00	146.60	26.33	-145.44	-24.91
67	136	0.004066	0.028957	0.05313	402.36	9999.00	9999.00	0.00000	0.000	1	0.00	0.00	-209.45	-44.05	211.28	51.55
67	136	0.004066	0.028957	0.05313	402.36	9999.00	9999.00	0.00000	0.000	1	0.00	0.00	-209.45	-44.05	211.28	51.55
68	73	0.005532	0.039399	0.07228	402.36	9999.00	9999.00	0.00000	0.000	1	0.00	0.00	-23.32	-18.19	23.37	11.14
68	85	0.005592	0.039824	0.07306	402.36	9999.00	9999.00	0.00000	0.000	1	0.00	0.00	-43.36	-0.82	43.47	-5.82
69	70	0.005812	0.041392	0.07594	402.36	9999.00	9999.00	0.00000	0.000	1	0.00	0.00	-40.02	-9.40	40.11	2.18
69	87	0.005414	0.038555	0.07074	402.36	9999.00	9999.00	0.00000	0.000	1	0.00	0.00	-24.73	-9.05	24.76	1.97
70	72	0.007803	0.055572	0.10196	402.36	9999.00	9999.00	0.00000	0.000	1	0.00	0.00	139.88	29.31	-138.33	-28.57
70	136	0.001683	0.011988	0.02199	402.36	9999.00	9999.00	0.00000	0.000	1	0.00	0.00	-213.89	-41.15	214.66	44.29
71	72	0.002482	0.017676	0.03243	402.36	9999.00	9999.00	0.00000	0.000	1	0.00	0.00	27.88	15.76	-27.85	-18.79
71	74	0.001080	0.007691	0.01411	402.36	9999.00	9999.00	0.00000	0.000	1	0.00	0.00	138.90	32.88	-138.68	-32.70
71	74	0.001080	0.007691	0.01411	402.36	9999.00	9999.00	0.00000	0.000	1	0.00	0.00	138.90	32.88	-138.68	-32.70
71	82	0.001738	0.012376	0.02271	402.36	9999.00	9999.00	0.00000	0.000	1	0.00	0.00	102.28	8.85	-102.09	-9.79
71	104	0.000200	0.016000	0.00000	1000.00	9999.00	9999.00	1.00000	0.000	1	0.00	0.00	-577.01	-150.42	577.72	207.59
73	136	0.005501	0.039175	0.07187	402.36	9999.00	9999.00	0.00000	0.000	1	0.00	0.00	-88.84	-35.15	89.32	31.07
74	78	0.000958	0.006824	0.01252	402.36	9999.00	9999.00	0.00000	0.000	1	0.00	0.00	103.52	15.86	-103.41	-16.34
75	78	0.001428	0.010169	0.01866	402.36	9999.00	9999.00	0.00000	0.000	1	0.00	0.00	-1.49	-16.97	1.49	15.16
76	77	0.001911	0.013609	0.02497	402.36	9999.00	9999.00	0.00000	0.000	1	0.00	0.00	66.54	12.45	-66.45	-14.29
76	78	0.001213	0.008642	0.01586	402.36	9999.00	9999.00	0.00000	0.000	1	0.00	0.00	75.90	48.62	-75.80	-49.48
76	79	0.001029	0.007331	0.01345	402.36	9999.00	9999.00	0.00000	0.000	1	0.00	0.00	-311.00	-109.11	312.12	115.77
77	81	0.002040	0.014531	0.02666	402.36	9999.00	9999.00	0.00000	0.000	1	0.00	0.00	-81.18	-27.79	81.33	26.21
79	80	0.001356	0.009656	0.01772	402.36	9999.00	9999.00	0.00000	0.000	1	0.00	0.00	219.08	84.09	-218.34	-80.63
79	81	0.001151	0.008199	0.01504	402.36	9999.00	9999.00	0.00000	0.000	1	0.00	0.00	245.82	76.72	-245.07	-72.88
79	99	0.000200	0.016000	0.00000	1000.00	9999.00	9999.00	1.00000	0.000	1	0.00	0.00	-484.13	-89.34	484.60	127.50
79	99	0.000200	0.016000	0.00000	1000.00	9999.00	9999.00	1.00000	0.000	1	0.00	0.00	-484.13	-89.34	484.60	127.50
80	82	0.000873	0.006220	0.01141	402.36	9999.00	9999.00	0.00000	0.000	1	0.00	0.00	50.50	32.79	-50.47	-33.69
85	84	0.005906	0.042059	0.07716	402.36	9999.00	9999.00	0.00000	0.000	1	0.00	0.00	-108.34	-12.67	109.03	9.68
86	95	0.000200	0.016000	0.00000	1000.00	9999.00	9999.00	1.00000	0.000	1	0.00	0.00	-334.63	-94.01	334.85	112.16
87	147	0.004648	0.033101	0.06073	402.36	9999.00	9999.00	0.00000	0.000	1	0.00	0.00	-120.91	-29.37	121.59	27.84
88	89	0.008431	0.060041	0.11016	402.36	9999.00	9999.00	0.00000	0.000	1	0.00	0.00	150.77	21.99	-148.85	-19.33
88	147	0.003820	0.027207	0.04992	402.36	9999.00	9999.00	0.00000	0.000	1	0.00	0.00	-216.48	-40.72	218.28	48.27
90	91	0.006110	0.043516	0.07984	402.36	9999.00	9999.00	0.00000	0.000	1	0.00	0.00	56.05	5.30	-55.87	-12.37
90	105	0.000200	0.016000	0.00000	1000.00	9999.00	9999.00	1.00000	0.000	1	0.00	0.00	-368.26	-82.43	368.53	103.94
92	100	0.000060	0.001258	0.13886	3585.35	9999.00	9999.00	0.00000	0.000	1	0.00	0.00	-672.50	-43.34	672.75	33.64
109	92	0.000102	0.002150	0.23729	3585.35	9999.00	9999.00	0.00000	0.000	1	0.00	0.00	-298.08	54.34	298.17	-78.11
93	97	0.000476	0.010062	1.11050	3585.35	9999.00	9999.00	0.00000	0.000	1	0.00	0.00	231.51	-55.41	-231.28	-59.93
109	93	0.000296	0.006254	0.69030	3585.35	9999.00	9999.00	0.00000	0.000	1	0.00	0.00	589.30	-85.63	-588.34	31.11
150	93	0.000279	0.005885	0.64955	3585.35	9999.00	9999.00	0.00000	0.000	1	0.00	0.00	-29.21	26.00	29.22	-96.44
106	94	0.000482	0.010183	1.12392	3585.35	9999.00	9999.00	0.00000	0.000	1	0.00	0.00	-603.29	-82.81	604.91	-5.99
146	94	0.000093	0.001972	0.21765	3585.35	9999.00	9999.00	0.00000	0.000	1	0.00	0.00	1024.77	129.27	-1023.86	-134.25
137	95	0.000307	0.006477	0.71484	3585.35	9999.00	9999.00	0.00000	0.000	1	0.00	0.00	-281.63	-76.13	281.85	2.58
144	95	0.000476	0.010061	1.11046	3585.35	9999.00	9999.00	0.00000	0.000	1	0.00	0.00	775.01	-13.03	-772.42	-55.08
148	95	0.000470	0.009928	1.09577	3585.35	9999.00	9999.00	0.00000	0.000	1	0.00	0.00	-155.61	-58.54	155.72	-59.66
96	101	0.000203	0.004279	0.47225	3585.35	9999.00	9999.00	0.00000	0.000	1	0.00	0.00	-302.67	-54.09	302.84	6.79
96	102	0.000096	0.002025	0.22352	3585.35	9999.00	9999.00	0.00000	0.000	1	0.00	0.00	-137.85	-81.18	137.87	57.51
103	97	0.000185	0.003902	0.43064	3585.35	9999.00	9999.00	0.00000	0.000	1	0.00	0.00	-277.30	-86.02	277.44	42.48
150	97	0.000259	0.005477	0.60445	3585.35	9999.00	9999.00	0.00000	0.000	1	0.00	0.00	395.34	41.19	-394.96	-98.78
98	108	0.000108	0.002281	0.25174	3585.35	9999.00	9999.00	0.00000	0.000	1	0.00	0.00	261.04	13.84	-260.97	-39.92
144	98	0.000398	0.008398	0.92687	3585.35	9999.00	9999.00	0.00000	0.000	1	0.00	0.00	598.56	36.39	-597.25	-110.90
104	99	0.000100	0.002118	0.23376	3585.35	9999.00	9999.00	0.00000	0.000	1	0.00	0.00	248.43	22.89	-248.37	-46.26
99	137	0.000442	0.009342	1.03107	3585.35	9999.00	9999.00	0.00000	0.000	1	0.00	0.00	-720.84	-208.73	723.12	146.37
139	100	0.000206	0.004354	0.48054	3585.35	9999.00	9999.00	0.00000	0.000	1	0.00	0.00	1070.19	159.61	-1067.97	-165.23
108	101	0.000383	0.008091	0.89305	3585.35	9999.00	9999.00	0.00000	0.000	1	0.00	0.00	393.63	4.71	-393.07	-90.06
142	101	0.000178	0.003767	0.41573	3585.35	9999.00	9999.00	0.00000	0.000	1	0.00	0.00	475.74	85.75	-475.35	-122.68
144	101	0.000672	0.014203	1.56758	3585.35	9999.00	9999.00	0.00000	0.000	1	0.00	0.00	620.26	13.41	-617.87	-134.77
105	102	0.000441	0.009307	1.02721	3585.35	9999.00	9999.00	0.00000	0.000	1	0.00	0.00	235.16	-10.15	-234.93	-96.46
106	102	0.000331	0.006982	0.77057	3585.35	9999.00	9999.00	0.00000	0.000	1	0.00	0.00	259.56	-5.86	-259.35	-73.24
104	137	0.000356	0.007513	0.82922	3585.35	9999.00	9999.00	0.00000	0.000	1	0.00	0.00	-826.15	-230.49	828.57	192.57
146	105	0.000612	0.012918	1.42581	3585.35	9999.00	9999.00	0.00000	0.000	1	0.00	0.00	605.73	-19.74	-603.69	-93.79
109	107	0.000402	0.008488	0.93683	3585.35	9999.00	9999.00	0.00000	0.000	1	0.00	0.00	-640.48	-87.28	642.01	17.67
107	139	0.000278	0.005880	0.64896	3585.35	9999.00	9999.00	0.00000	0.000	1	0.00	0.00	-120.39	-63.27	120.43	-7.11
146	107	0.000348	0.007355	0.81179	3585.35	9999.00	9999.00	0.00000	0.000	1	0.00	0.00	861.41	25.61	-859.06	-65.43
144	108	0.000448	0.009472	1.04538	3585.35	9999.00	9999.00	0.00000	0.000	1	0.00	0.00	593.69	29.41	-592.24	-113.86
142	110	0.000366	0.014639	0.00000	683.10	9999.00	9999.00	1.02000	0.000	1	0.00	0.00	-366.21	-93.97	366.71	113.92
142	111	0.000550	0.022017	0.00000	454.20	9999.00	9999.00	1.02000	0.000	1	0.00	0.00	-243.50	-62.48	243.83	75.75
142	112	0.000194	0.007757	0.00000	1289.20	9999.00	9999.00	1.02000	0.000	1	0.00	0.00	-691.15	-177.34	692.09	215.01
150	113	0.000395	0.015788	0.00000	633.40	9999.00	9999.00	1.02000	0.000	1	0.00	0.00	-339.57	-84.15	340.03	102.57
150	114	0.000395	0.015788	0.00000	633.40	9999.00	9999.00	1.02000	0.000	1	0.00	0.00	-339.57	-84.15	340.03	102.57
150	115	0.000908	0.036337	0.00000	275.20	9999.00	9999.00	1.02000	0.000	1	0.00	0.00	-147.54	-36.56	147.74	44.56
144	116	0.000368	0.014723	0.00000	679.20	9999.00	9999.00	1.02000	0.000	1	0.00	0.00	-364.16	-28.39	364.62	46.79
144	117	0.000368	0.014723	0.00000	679.20	9999.00	9999.00	1.02000	0.000	1	0.00	0.00	-364.16	-28.39	364.62	46.79
144	118	0.000368	0.014723	0.00000	679.20	9999.00	9999.00	1.02000	0.000	1	0.00	0.00	-364.16	-28.39	364.62	46.79
144	119	0.000122	0.004896	0.00000	2042.60	9999.00	9999.00	1.02000	0.000	1	0.00	0.00	-1095.16	-85.38	1096.54	140.70
139	120	0.000563	0.022535	0.00000	443.75	9999.00	9999.00	1.02000	0.000	1	0.00	0.00	-237.91	-43.77	238.22	56.25
139	121	0.000563	0.022535	0.00000	443.75	9999.00	9999.00	1.02000	0.000	1	0.00	0.00	-237.91	-43.77	238.22	56.25
139	122	0.000189	0.007547	0.00000	1325.00	9999.00	9999.00	1.02000	0.000	1	0.00	0.00	-710.38	-130.69	711.31	167.96
139	123	0.000189	0.007547	0.00000	1325.00	9999.00	9999.00	1.02000	0.000	1	0.00	0.00	-710.38	-130.69	711.31	167.96
137	124	0.000369	0.014759	0.00000	677.55	9999.00	9999.00	1.02000	0.000	1	0.00	0.00	-363.24	-87.95	363.73	107.58
137	125	0.000369	0.014759	0.00000	677.55	9999.00	9999.00	1.02000	0.000	1	0.00	0.00	-363.24	-87.95	363.73	107.58
137	126	0.000369	0.014759	0.00000	677.55	9999.00	9999.00	1.02000	0.000	1	0.00	0.00	-363.24	-87.95	363.73	107.58
137	127	0.000369	0.014759	0.00000	677.55	9999.00	9999.00	1.02000	0.000	1	0.00	0.00	-363.24	-87.95	363.73	107.58
137	128	0.000246	0.009852	0.00000	1015.00	9999.00	9999.00	1.02000	0.000	1	0.00	0.00	-544.15	-131.75	544.89	161.16
148	129	0.000727	0.029061	0.00000	344.10	9999.00	9999.00	1.02000	0.000	1	0.00	0.00	-184.48	-35.72	184.73	45.45
146	130	0.000314	0.012547	0.00000	797.00	9999.00	9999.00	1.02000	0.000	1	0.00	0.00	-427.31	-45.45	427.86	67.21
146	131	0.000314	0.012547	0.00000	797.00	9999.00	9999.00	1.02000	0.000	1	0.00	0.00	-427.31	-45.45	427.86	67.21
...
];

%% bus names
mpc.bus_name = {
'Johnsonville_g4';
'GOODLETTSVILLE_37072_230.0';
'LEBANON_37087_230.0';
'ANTIOCH_37013_230.0';
'BRENTWOOD_37027_230.0';
'NASHVILLE_37209_230.0';
'MCMINNVILLE_37110_230.0';
'MURFREESBORO_37130_230.0';
'SHELBYVILLE_37160_230.0';
'LAFAYETTE_37083_230.0';
'CLARKSVILLE_37042_230.0';
'DICKSON_37055_230.0';
'NASHVILLE_37221_230.0';
'CLARKSVILLE_37040_230.0';
'WHITE HOUSE_37188_230.0';
'FRANKLIN_37064_230.0';
'HENDERSONVILLE_37075_230.0';
'HERMITAGE_37076_230.0';
'SMYRNA_37167_230.0';
'LEXINGTON_38351_230.0';
'NASHVILLE_37207_230.0';
'NASHVILLE_37215_230.0';
'MURFREESBORO_37129_230.0';
'CAMDEN_38320_230.0';
'GAINESBORO_38562_230.0';
'COLUMBIA_38401_230.0';
'TULLAHOMA_37388_230.0';
'NASHVILLE_37212_230.0';
'NASHVILLE_37206_230.0';
'NASHVILLE_37211_230.0';
'CHATTANOOGA_37405_230.0';
'CHATTANOOGA_37421_230.0';
'ATHENS_37303_230.0';
'CLEVELAND_37311_230.0';
'SODDY DAISY_37379_230.0';
'COPPERHILL_37317_230.0';
'DAYTON_37321_230.0';
'DUNLAP_37327_230.0';
'FAYETTEVILLE_37334_230.0';
'HIXSON_37343_230.0';
'CHATTANOOGA_37404_230.0';
'JOHNSON CITY_37601_230.0';
'JONESBOROUGH_37659_230.0';
'GREENEVILLE_37745_230.0';
'ELIZABETHTON_37643_230.0';
'CHURCH HILL_37642_230.0';
'KINGSPORT_37660_230.0';
'MOUNTAIN CITY_37683_230.0';
'MARYVILLE_37804_230.0';
'CLINTON_37716_230.0';
'MORRISTOWN_37814_230.0';
'KNOXVILLE_37914_230.0';
'LOUDON_37774_230.0';
'JEFFERSON CITY_37760_230.0';
'LA FOLLETTE_37766_230.0';
'KNOXVILLE_37918_230.0';
'CROSSVILLE_38555_230.0';
'TAZEWELL_37879_230.0';
'HARRIMAN_37748_230.0';
'SEVIERVILLE_37876_230.0';
'MARYVILLE_37803_230.0';
'KNOXVILLE_37922_230.0';
'KNOXVILLE_37921_230.0';
'KNOXVILLE_37919_230.0';
'HUMBOLDT_38343_230.0';
'ARLINGTON_38002_230.0';
'BRIGHTON_38011_230.0';
'UNION CITY_38261_230.0';
'WHITEVILLE_38075_230.0';
'BROWNSVILLE_38012_230.0';
'CORDOVA_38016_230.0';
'COLLIERVILLE_38017_230.0';
'DYERSBURG_38024_230.0';
'MEMPHIS_38134_230.0';
'MEMPHIS_38127_230.0';
'MEMPHIS_38103_230.0';
'MEMPHIS_38109_230.0';
'MEMPHIS_38128_230.0';
'MEMPHIS_38111_230.0';
'MEMPHIS_38115_230.0';
'MEMPHIS_38118_230.0';
'GERMANTOWN_38138_230.0';
'HUNTINGDON_38344_230.0';
'PARIS_38242_230.0';
'MARTIN_38237_230.0';
'JACKSON_38305_230.0';
'ADAMSVILLE_38310_230.0';
'SAVANNAH_38372_230.0';
'LAWRENCEBURG_38464_230.0';
'COOKEVILLE_38501_230.0';
'LIVINGSTON_38570_230.0';
'KNOXVILLE_37921_500.0';
'JEFFERSON CITY_37760_500.0';
'HIXSON_37343_500.0';
'JACKSON_38305_500.0';
'MURFREESBORO_37129_500.0';
'JONESBOROUGH_37659_500.0';
'CLARKSVILLE_37042_500.0';
'MEMPHIS_38111_500.0';
'KNOXVILLE_37919_500.0';
'NASHVILLE_37215_500.0';
'MURFREESBORO_37130_500.0';
'ELIZABETHTON_37643_500.0';
'CORDOVA_38016_500.0';
'COOKEVILLE_38501_500.0';
'TULLAHOMA_37388_500.0';
'ATHENS_37303_500.0';
'CLARKSVILLE_37040_500.0';
'MARYVILLE_37804_500.0';
'Gallatin (TN)_g1';
'Gallatin (TN)_g2';
'Gallatin (TN)_g3';
'John Sevier_g1';
'John Sevier_g2';
'John Sevier_g3';
'Johnsonville_g1';
'Johnsonville_g2';
'Johnsonville_g3';
'Johnsonville_g5';
'Kingston_g1';
'Kingston_g2';
'Kingston_g3';
'Kingston_g4';
'Lagoon Creek_g1';
'Lagoon Creek_g2';
'Lagoon Creek_g3';
'Lagoon Creek_g4';
'Lagoon Creek_g5';
'Pickwick Landing Dam_g1';
'Sequoyah_g1';
'Sequoyah_g2';
'Sequoyah_g3';
'Sequoyah_g4';
'Sequoyah_g5';
'Tims Ford_g1';
'Lagoon Creek_230.0';
'Lagoon Creek_500.0';
'Kingston_230.0';
'Kingston_500.0';
'Tims Ford_230.0';
'Gallatin (TN)_230.0';
'Gallatin (TN)_500.0';
'Johnsonville_230.0';
'Johnsonville_500.0';
'Sequoyah_230.0';
'Sequoyah_500.0';
'Pickwick Landing Dam_230.0';
'Pickwick Landing Dam_500.0';
'John Sevier_230.0';
'John Sevier_500.0';
};

%% Generator Unit Types
mpc.gentype = {
'UN';
'UN';
'UN';
'UN';
'UN';
'UN';
'UN';
'UN';
'UN';
'UN';
'UN';
'UN';
'UN';
'UN';
'UN';
'UN';
'UN';
'UN';
'UN';
'UN';
'UN';
'UN';
'UN';
'UN';
'UN';
'UN';
'UN';
};

%% Generator Fuel Types
mpc.genfuel = {
'unknown';
'unknown';
'unknown';
'unknown';
'unknown';
'unknown';
'unknown';
'unknown';
'unknown';
'unknown';
'unknown';
'unknown';
'unknown';
'unknown';
'unknown';
'unknown';
'unknown';
'unknown';
'unknown';
'unknown';
'unknown';
'unknown';
'unknown';
'unknown';
'unknown';
'unknown';
'unknown';
};

%% gmd_bus data
%column_names% parent_index status g_gnd sub name
mpc.gmd_bus = {
-1	1	2.1259419039		-1	'dc sub GOODLETTSVILLE_37072'
-1	1	2.1259419039		-1	'dc sub LEBANON_37087'
-1	1	2.1259419039		-1	'dc sub ANTIOCH_37013'
-1	1	2.1259419039		-1	'dc sub BRENTWOOD_37027'
-1	1	2.1259419039		-1	'dc sub NASHVILLE_37209'
-1	1	2.1259419039		-1	'dc sub MCMINNVILLE_37110'
-1	1	5.6602968328		-1	'dc sub MURFREESBORO_37130'
-1	1	2.1259419039		-1	'dc sub SHELBYVILLE_37160'
-1	1	2.1259419039		-1	'dc sub LAFAYETTE_37083'
-1	1	5.6602968328		-1	'dc sub CLARKSVILLE_37042'
-1	1	2.1259419039		-1	'dc sub DICKSON_37055'
-1	1	2.1259419039		-1	'dc sub NASHVILLE_37221'
-1	1	5.6602968328		-1	'dc sub CLARKSVILLE_37040'
-1	1	2.1259419039		-1	'dc sub WHITE HOUSE_37188'
-1	1	2.1259419039		-1	'dc sub FRANKLIN_37064'
-1	1	2.1259419039		-1	'dc sub HENDERSONVILLE_37075'
-1	1	2.1259419039		-1	'dc sub HERMITAGE_37076'
-1	1	2.1259419039		-1	'dc sub SMYRNA_37167'
-1	1	2.1259419039		-1	'dc sub LEXINGTON_38351'
-1	1	2.1259419039		-1	'dc sub NASHVILLE_37207'
-1	1	5.6602968328		-1	'dc sub NASHVILLE_37215'
-1	1	5.6602968328		-1	'dc sub MURFREESBORO_37129'
-1	1	2.1259419039		-1	'dc sub CAMDEN_38320'
-1	1	2.1259419039		-1	'dc sub GAINESBORO_38562'
-1	1	2.1259419039		-1	'dc sub COLUMBIA_38401'
-1	1	5.6602968328		-1	'dc sub TULLAHOMA_37388'
-1	1	2.1259419039		-1	'dc sub NASHVILLE_37212'
-1	1	2.1259419039		-1	'dc sub NASHVILLE_37206'
-1	1	2.1259419039		-1	'dc sub NASHVILLE_37211'
-1	1	2.1259419039		-1	'dc sub CHATTANOOGA_37405'
-1	1	2.1259419039		-1	'dc sub CHATTANOOGA_37421'
-1	1	5.6602968328		-1	'dc sub ATHENS_37303'
-1	1	2.1259419039		-1	'dc sub CLEVELAND_37311'
-1	1	2.1259419039		-1	'dc sub SODDY DAISY_37379'
-1	1	2.1259419039		-1	'dc sub COPPERHILL_37317'
-1	1	2.1259419039		-1	'dc sub DAYTON_37321'
-1	1	2.1259419039		-1	'dc sub DUNLAP_37327'
-1	1	2.1259419039		-1	'dc sub FAYETTEVILLE_37334'
-1	1	5.6602968328		-1	'dc sub HIXSON_37343'
-1	1	2.1259419039		-1	'dc sub CHATTANOOGA_37404'
-1	1	2.1259419039		-1	'dc sub JOHNSON CITY_37601'
-1	1	5.6602968328		-1	'dc sub JONESBOROUGH_37659'
-1	1	2.1259419039		-1	'dc sub GREENEVILLE_37745'
-1	1	5.6602968328		-1	'dc sub ELIZABETHTON_37643'
-1	1	2.1259419039		-1	'dc sub CHURCH HILL_37642'
-1	1	2.1259419039		-1	'dc sub KINGSPORT_37660'
-1	1	2.1259419039		-1	'dc sub MOUNTAIN CITY_37683'
-1	1	5.6602968328		-1	'dc sub MARYVILLE_37804'
-1	1	2.1259419039		-1	'dc sub CLINTON_37716'
-1	1	2.1259419039		-1	'dc sub MORRISTOWN_37814'
-1	1	2.1259419039		-1	'dc sub KNOXVILLE_37914'
-1	1	2.1259419039		-1	'dc sub LOUDON_37774'
-1	1	5.6602968328		-1	'dc sub JEFFERSON CITY_37760'
-1	1	2.1259419039		-1	'dc sub LA FOLLETTE_37766'
-1	1	2.1259419039		-1	'dc sub KNOXVILLE_37918'
-1	1	2.1259419039		-1	'dc sub CROSSVILLE_38555'
-1	1	2.1259419039		-1	'dc sub TAZEWELL_37879'
-1	1	2.1259419039		-1	'dc sub HARRIMAN_37748'
-1	1	2.1259419039		-1	'dc sub SEVIERVILLE_37876'
-1	1	2.1259419039		-1	'dc sub MARYVILLE_37803'
-1	1	2.1259419039		-1	'dc sub KNOXVILLE_37922'
-1	1	5.6602968328		-1	'dc sub KNOXVILLE_37921'
-1	1	5.6602968328		-1	'dc sub KNOXVILLE_37919'
-1	1	2.1259419039		-1	'dc sub HUMBOLDT_38343'
-1	1	2.1259419039		-1	'dc sub ARLINGTON_38002'
-1	1	2.1259419039		-1	'dc sub BRIGHTON_38011'
-1	1	2.1259419039		-1	'dc sub UNION CITY_38261'
-1	1	2.1259419039		-1	'dc sub WHITEVILLE_38075'
-1	1	2.1259419039		-1	'dc sub BROWNSVILLE_38012'
-1	1	5.6602968328		-1	'dc sub CORDOVA_38016'
-1	1	2.1259419039		-1	'dc sub COLLIERVILLE_38017'
-1	1	2.1259419039		-1	'dc sub DYERSBURG_38024'
-1	1	2.1259419039		-1	'dc sub MEMPHIS_38134'
-1	1	2.1259419039		-1	'dc sub MEMPHIS_38127'
-1	1	2.1259419039		-1	'dc sub MEMPHIS_38103'
-1	1	2.1259419039		-1	'dc sub MEMPHIS_38109'
-1	1	2.1259419039		-1	'dc sub MEMPHIS_38128'
-1	1	5.6602968328		-1	'dc sub MEMPHIS_38111'
-1	1	2.1259419039		-1	'dc sub MEMPHIS_38115'
-1	1	2.1259419039		-1	'dc sub MEMPHIS_38118'
-1	1	2.1259419039		-1	'dc sub GERMANTOWN_38138'
-1	1	2.1259419039		-1	'dc sub HUNTINGDON_38344'
-1	1	2.1259419039		-1	'dc sub PARIS_38242'
-1	1	2.1259419039		-1	'dc sub MARTIN_38237'
-1	1	5.6602968328		-1	'dc sub JACKSON_38305'
-1	1	2.1259419039		-1	'dc sub ADAMSVILLE_38310'
-1	1	2.1259419039		-1	'dc sub SAVANNAH_38372'
-1	1	2.1259419039		-1	'dc sub LAWRENCEBURG_38464'
-1	1	5.6602968328		-1	'dc sub COOKEVILLE_38501'
-1	1	2.1259419039		-1	'dc sub LIVINGSTON_38570'
-1	1	8.0048688814		-1	'dc sub Gallatin (TN)'
-1	1	8.0048688814		-1	'dc sub John Sevier'
-1	1	9.2432256861		-1	'dc sub Johnsonville'
-1	1	8.6462460205		-1	'dc sub Kingston'
-1	1	9.2432256861		-1	'dc sub Lagoon Creek'
-1	1	6.5359477124		-1	'dc sub Pickwick Landing Dam'
-1	1	9.2432256861		-1	'dc sub Sequoyah'
-1	1	2.6037364399		-1	'dc sub Tims Ford'
1	1	0.0000000000		93	'dc bus Johnsonville_g4'
2	1	0.0000000000		1	'dc bus GOODLETTSVILLE_37072_230.0'
3	1	0.0000000000		2	'dc bus LEBANON_37087_230.0'
4	1	0.0000000000		3	'dc bus ANTIOCH_37013_230.0'
5	1	0.0000000000		4	'dc bus BRENTWOOD_37027_230.0'
6	1	0.0000000000		5	'dc bus NASHVILLE_37209_230.0'
7	1	0.0000000000		6	'dc bus MCMINNVILLE_37110_230.0'
8	1	0.0000000000		7	'dc bus MURFREESBORO_37130_230.0'
9	1	0.0000000000		8	'dc bus SHELBYVILLE_37160_230.0'
10	1	0.0000000000		9	'dc bus LAFAYETTE_37083_230.0'
11	1	0.0000000000		10	'dc bus CLARKSVILLE_37042_230.0'
12	1	0.0000000000		11	'dc bus DICKSON_37055_230.0'
13	1	0.0000000000		12	'dc bus NASHVILLE_37221_230.0'
14	1	0.0000000000		13	'dc bus CLARKSVILLE_37040_230.0'
15	1	0.0000000000		14	'dc bus WHITE HOUSE_37188_230.0'
16	1	0.0000000000		15	'dc bus FRANKLIN_37064_230.0'
17	1	0.0000000000		16	'dc bus HENDERSONVILLE_37075_230.0'
18	1	0.0000000000		17	'dc bus HERMITAGE_37076_230.0'
19	1	0.0000000000		18	'dc bus SMYRNA_37167_230.0'
20	1	0.0000000000		19	'dc bus LEXINGTON_38351_230.0'
21	1	0.0000000000		20	'dc bus NASHVILLE_37207_230.0'
22	1	0.0000000000		21	'dc bus NASHVILLE_37215_230.0'
23	1	0.0000000000		22	'dc bus MURFREESBORO_37129_230.0'
24	1	0.0000000000		23	'dc bus CAMDEN_38320_230.0'
25	1	0.0000000000		24	'dc bus GAINESBORO_38562_230.0'
26	1	0.0000000000		25	'dc bus COLUMBIA_38401_230.0'
27	1	0.0000000000		26	'dc bus TULLAHOMA_37388_230.0'
28	1	0.0000000000		27	'dc bus NASHVILLE_37212_230.0'
29	1	0.0000000000		28	'dc bus NASHVILLE_37206_230.0'
30	1	0.0000000000		29	'dc bus NASHVILLE_37211_230.0'
31	1	0.0000000000		30	'dc bus CHATTANOOGA_37405_230.0'
32	1	0.0000000000		31	'dc bus CHATTANOOGA_37421_230.0'
33	1	0.0000000000		32	'dc bus ATHENS_37303_230.0'
34	1	0.0000000000		33	'dc bus CLEVELAND_37311_230.0'
35	1	0.0000000000		34	'dc bus SODDY DAISY_37379_230.0'
36	1	0.0000000000		35	'dc bus COPPERHILL_37317_230.0'
37	1	0.0000000000		36	'dc bus DAYTON_37321_230.0'
38	1	0.0000000000		37	'dc bus DUNLAP_37327_230.0'
39	1	0.0000000000		38	'dc bus FAYETTEVILLE_37334_230.0'
40	1	0.0000000000		39	'dc bus HIXSON_37343_230.0'
41	1	0.0000000000		40	'dc bus CHATTANOOGA_37404_230.0'
42	1	0.0000000000		41	'dc bus JOHNSON CITY_37601_230.0'
43	1	0.0000000000		42	'dc bus JONESBOROUGH_37659_230.0'
44	1	0.0000000000		43	'dc bus GREENEVILLE_37745_230.0'
45	1	0.0000000000		44	'dc bus ELIZABETHTON_37643_230.0'
46	1	0.0000000000		45	'dc bus CHURCH HILL_37642_230.0'
47	1	0.0000000000		46	'dc bus KINGSPORT_37660_230.0'
48	1	0.0000000000		47	'dc bus MOUNTAIN CITY_37683_230.0'
49	1	0.0000000000		48	'dc bus MARYVILLE_37804_230.0'
50	1	0.0000000000		49	'dc bus CLINTON_37716_230.0'
51	1	0.0000000000		50	'dc bus MORRISTOWN_37814_230.0'
52	1	0.0000000000		51	'dc bus KNOXVILLE_37914_230.0'
53	1	0.0000000000		52	'dc bus LOUDON_37774_230.0'
54	1	0.0000000000		53	'dc bus JEFFERSON CITY_37760_230.0'
55	1	0.0000000000		54	'dc bus LA FOLLETTE_37766_230.0'
56	1	0.0000000000		55	'dc bus KNOXVILLE_37918_230.0'
57	1	0.0000000000		56	'dc bus CROSSVILLE_38555_230.0'
58	1	0.0000000000		57	'dc bus TAZEWELL_37879_230.0'
59	1	0.0000000000		58	'dc bus HARRIMAN_37748_230.0'
60	1	0.0000000000		59	'dc bus SEVIERVILLE_37876_230.0'
61	1	0.0000000000		60	'dc bus MARYVILLE_37803_230.0'
62	1	0.0000000000		61	'dc bus KNOXVILLE_37922_230.0'
63	1	0.0000000000		62	'dc bus KNOXVILLE_37921_230.0'
64	1	0.0000000000		63	'dc bus KNOXVILLE_37919_230.0'
65	1	0.0000000000		64	'dc bus HUMBOLDT_38343_230.0'
66	1	0.0000000000		65	'dc bus ARLINGTON_38002_230.0'
67	1	0.0000000000		66	'dc bus BRIGHTON_38011_230.0'
68	1	0.0000000000		67	'dc bus UNION CITY_38261_230.0'
69	1	0.0000000000		68	'dc bus WHITEVILLE_38075_230.0'
70	1	0.0000000000		69	'dc bus BROWNSVILLE_38012_230.0'
71	1	0.0000000000		70	'dc bus CORDOVA_38016_230.0'
72	1	0.0000000000		71	'dc bus COLLIERVILLE_38017_230.0'
73	1	0.0000000000		72	'dc bus DYERSBURG_38024_230.0'
74	1	0.0000000000		73	'dc bus MEMPHIS_38134_230.0'
75	1	0.0000000000		74	'dc bus MEMPHIS_38127_230.0'
76	1	0.0000000000		75	'dc bus MEMPHIS_38103_230.0'
77	1	0.0000000000		76	'dc bus MEMPHIS_38109_230.0'
78	1	0.0000000000		77	'dc bus MEMPHIS_38128_230.0'
79	1	0.0000000000		78	'dc bus MEMPHIS_38111_230.0'
80	1	0.0000000000		79	'dc bus MEMPHIS_38115_230.0'
81	1	0.0000000000		80	'dc bus MEMPHIS_38118_230.0'
82	1	0.0000000000		81	'dc bus GERMANTOWN_38138_230.0'
83	1	0.0000000000		82	'dc bus HUNTINGDON_38344_230.0'
84	1	0.0000000000		83	'dc bus PARIS_38242_230.0'
85	1	0.0000000000		84	'dc bus MARTIN_38237_230.0'
86	1	0.0000000000		85	'dc bus JACKSON_38305_230.0'
87	1	0.0000000000		86	'dc bus ADAMSVILLE_38310_230.0'
88	1	0.0000000000		87	'dc bus SAVANNAH_38372_230.0'
89	1	0.0000000000		88	'dc bus LAWRENCEBURG_38464_230.0'
90	1	0.0000000000		89	'dc bus COOKEVILLE_38501_230.0'
91	1	0.0000000000		90	'dc bus LIVINGSTON_38570_230.0'
92	1	0.0000000000		62	'dc bus KNOXVILLE_37921_500.0'
93	1	0.0000000000		53	'dc bus JEFFERSON CITY_37760_500.0'
94	1	0.0000000000		39	'dc bus HIXSON_37343_500.0'
95	1	0.0000000000		85	'dc bus JACKSON_38305_500.0'
96	1	0.0000000000		22	'dc bus MURFREESBORO_37129_500.0'
97	1	0.0000000000		42	'dc bus JONESBOROUGH_37659_500.0'
98	1	0.0000000000		10	'dc bus CLARKSVILLE_37042_500.0'
99	1	0.0000000000		78	'dc bus MEMPHIS_38111_500.0'
100	1	0.0000000000		63	'dc bus KNOXVILLE_37919_500.0'
101	1	0.0000000000		21	'dc bus NASHVILLE_37215_500.0'
102	1	0.0000000000		7	'dc bus MURFREESBORO_37130_500.0'
...
};

%% gmd_branch data
%column_names% f_bus t_bus parent_type parent_index br_status br_r br_v len_km name
mpc.gmd_branch = {
242	93	'branch'	1	1	0.0509970967		0.0000000000		0.0000000000		'dc 1_hi'
	% transformer 144-1
100	112	'branch'	2	1	0.9631221433		-41.0881538400		41.3140367400		'dc 2'
	% line 2-14
100	119	'branch'	3	1	0.5605987133		9.6869792900		23.9607677500		'dc 3'
	% line 2-21
117	101	'branch'	4	1	0.9607503300		31.4188976300		41.1380141500		'dc 4'
	% line 19-3
239	101	'branch'	5	1	0.4952026433		18.5891189600		21.2213140700		'dc 5'
	% line 141-3
102	116	'branch'	6	1	0.2075607600		1.7432969800		8.8662672000		'dc 6'
	% line 4-18
102	117	'branch'	7	1	0.2593988800		8.1208686800		11.1046247700		'dc 7'
	% line 4-19
102	128	'branch'	8	1	0.1954854600		-8.2174835200		8.3842838700		'dc 8'
	% line 4-30
103	114	'branch'	9	1	0.4487035033		-16.2841014900		19.2238656700		'dc 9'
	% line 5-16
103	128	'branch'	10	1	0.2874958900		3.9831347500		12.2842392700		'dc 10'
	% line 5-30
104	111	'branch'	11	1	0.4968935733		-3.8780105100		21.2252216200		'dc 11'
	% line 6-13
104	112	'branch'	12	1	0.9183474433		-28.5315666200		39.3136832500		'dc 12'
	% line 6-14
104	126	'branch'	13	1	0.4499838067		16.7642002100		19.2824158900		'dc 13'
	% line 6-28
105	106	'branch'	14	1	1.1636718767		-48.3687210100		49.9039202200		'dc 14'
	% line 7-8
105	136	'branch'	15	1	1.0384654367		37.8873443600		44.4915477300		'dc 15'
	% line 7-38
106	121	'branch'	16	1	0.3952899267		-16.8090763100		16.9552657600		'dc 16'
	% line 8-23
107	121	'branch'	18	1	1.0014333367		15.6496648800		42.7928536200		'dc 18'
	% line 9-23
107	124	'branch'	19	1	0.8256434867		-30.7972202300		35.3784829700		'dc 19'
	% line 9-26
107	137	'branch'	20	1	0.9676089067		5.3629097900		41.3236412400		'dc 20'
	% line 9-39
108	123	'branch'	21	1	1.0426257333		44.2883186300		44.7228874100		'dc 21'
	% line 10-25
108	239	'branch'	22	1	0.7713670333		-23.5431766500		33.0191717100		'dc 22'
	% line 10-141
109	112	'branch'	23	1	0.4452065700		18.2765312200		19.0915453100		'dc 23'
	% line 11-14
110	111	'branch'	25	1	0.9096542800		37.9997558600		39.0125228500		'dc 25'
	% line 12-13
110	241	'branch'	26	1	1.1473586300		-48.6904869100		49.2135361100		'dc 26'
	% line 12-143
111	114	'branch'	27	1	0.4766693833		6.8616709700		20.3678828600		'dc 27'
	% line 13-16
113	115	'branch'	29	1	0.4408851500		-7.8543334000		18.8450320500		'dc 29'
	% line 15-17
239	113	'branch'	30	1	0.4697796967		-10.8023843800		20.0901635000		'dc 30'
	% line 141-15
114	124	'branch'	31	1	0.5542720033		-2.9858427000		23.6729211600		'dc 31'
	% line 16-26
115	119	'branch'	32	1	0.3258668567		-11.1927833600		13.9570517500		'dc 32'
	% line 17-21
239	115	'branch'	33	1	0.4353632600		-18.6750564600		18.6760383600		'dc 33'
	% line 141-17
239	115	'branch'	34	1	0.4353632600		-18.6750564600		18.6760383600		'dc 34'
	% line 141-17-2
116	120	'branch'	35	1	0.1252915800		-5.3294129400		5.3742614600		'dc 35'
	% line 18-22
117	121	'branch'	36	1	0.3556229333		6.6551451700		15.2007589100		'dc 36'
	% line 19-23
181	118	'branch'	37	1	1.1320809833		27.9748020200		48.4192360200		'dc 37'
	% line 83-20
118	241	'branch'	38	1	1.2099765933		24.7599811600		51.7271290700		'dc 38'
	% line 20-143
119	127	'branch'	39	1	0.1978861033		2.3428063400		8.4545582900		'dc 39'
	% line 21-29
120	127	'branch'	40	1	0.1038116767		-3.1039667100		4.4432336300		'dc 40'
	% line 22-29
120	128	'branch'	41	1	0.2105038300		-4.6245932600		9.0008659500		'dc 41'
	% line 22-30
120	128	'branch'	42	1	0.2105038300		-4.6245932600		9.0008659500		'dc 42'
	% line 22-30-2
182	122	'branch'	46	1	0.8841741033		21.1374321000		37.8145527000		'dc 46'
	% line 84-24
122	241	'branch'	47	1	0.1193331667		5.0272979700		5.1182315300		'dc 47'
	% line 24-143
188	123	'branch'	48	1	0.9070174467		-12.8303432500		38.7579140500		'dc 48'
	% line 90-25
189	123	'branch'	49	1	1.0773533200		-45.9841842700		46.2142782600		'dc 49'
	% line 91-25
187	124	'branch'	50	1	1.1649317100		29.5772800400		49.8263228100		'dc 50'
	% line 89-26
238	125	'branch'	52	1	0.4629143533		13.1290121100		19.8068613700		'dc 52'
	% line 140-27
126	127	'branch'	53	1	0.1919185700		7.9248080300		8.2301392700		'dc 53'
	% line 28-29
129	136	'branch'	54	1	0.9893507433		17.5611515000		42.2817054300		'dc 54'
	% line 31-38
129	138	'branch'	55	1	0.6314957267		26.6747779800		27.0842514400		'dc 55'
	% line 31-40
129	139	'branch'	56	1	0.6844512067		23.6434764900		29.3131064800		'dc 56'
	% line 31-41
130	134	'branch'	57	1	1.5102517467		64.7815933200		64.7818253600		'dc 57'
	% line 32-36
130	138	'branch'	58	1	0.3131321033		-11.1168270100		13.4127538300		'dc 58'
	% line 32-40
243	130	'branch'	59	1	0.4259999167		-1.4919832900		18.1918254000		'dc 59'
	% line 145-32
131	135	'branch'	60	1	0.9508440867		-39.1528968800		40.7729729500		'dc 60'
	% line 33-37
159	131	'branch'	61	1	1.0702085267		-40.5323295600		45.8627191500		'dc 61'
	% line 61-33
133	132	'branch'	63	1	0.5892943067		18.3395748100		25.2242191500		'dc 63'
	% line 35-34
132	134	'branch'	64	1	0.9294024433		39.4445037800		39.8627057500		'dc 64'
	% line 34-36
133	135	'branch'	65	1	0.8110430767		10.7571926100		34.6500382700		'dc 65'
	% line 35-37
133	243	'branch'	66	1	0.1746948867		-5.4494504900		7.4777831100		'dc 66'
	% line 35-145
133	243	'branch'	67	1	0.1746948867		-5.4494504900		7.4777831100		'dc 67'
	% line 35-145-2
135	136	'branch'	68	1	0.8892537433		-37.7385902400		38.1416714000		'dc 68'
	% line 37-38
238	137	'branch'	69	1	0.6674134867		-27.7211990400		28.6206425900		'dc 69'
	% line 140-39
138	139	'branch'	70	1	0.3043320933		-3.0506603700		12.9988090400		'dc 70'
	% line 40-41
243	138	'branch'	72	1	0.3849200833		-12.5970897700		16.4802474500		'dc 72'
	% line 145-40
140	141	'branch'	73	1	0.2351697633		-9.8605403900		10.0862665300		'dc 73'
	% line 42-43
142	140	'branch'	74	1	1.0307116400		41.4206848100		44.1913771600		'dc 74'
	% line 44-42
143	140	'branch'	75	1	0.5840107667		-20.3328056300		25.0156490300		'dc 75'
	% line 45-42
145	141	'branch'	76	1	0.5132113900		7.4145379100		21.9309597000		'dc 76'
	% line 47-43
142	247	'branch'	78	1	0.6322447367		-14.0210151700		27.0351862300		'dc 78'
	% line 44-149
143	146	'branch'	79	1	0.6350490967		27.1174068500		27.2412288500		'dc 79'
	% line 45-48
144	145	'branch'	81	1	0.6235256533		26.5871925400		26.7466607800		'dc 81'
	% line 46-47
144	247	'branch'	82	1	0.3896204233		-11.4410696000		16.6753901000		'dc 82'
	% line 46-149
145	146	'branch'	83	1	1.5128497233		64.6547241200		64.8963174200		'dc 83'
	% line 47-48
147	150	'branch'	84	1	0.5422197133		12.3792905800		23.1862277400		'dc 84'
	% line 49-52
147	161	'branch'	85	1	0.4196484500		-9.4741993000		17.9443261500		'dc 85'
	% line 49-63
148	153	'branch'	87	1	0.8650859667		-17.8497200000		36.9858343200		'dc 87'
	% line 50-55
148	154	'branch'	88	1	0.4608250200		19.6981105800		19.7674735500		'dc 88'
	% line 50-56
148	162	'branch'	89	1	0.5010871933		4.1418438000		21.4043752200		'dc 89'
	% line 50-64
149	152	'branch'	90	1	0.5682533333		-7.1410136200		24.2790920500		'dc 90'
	% line 51-54
149	156	'branch'	91	1	0.9749516700		-33.5241775500		41.7583741200		'dc 91'
	% line 51-58
149	247	'branch'	92	1	0.6725155567		25.4067897800		28.8211975200		'dc 92'
	% line 51-149
150	154	'branch'	93	1	0.4243578733		-15.3546180700		18.1807248000		'dc 93'
	% line 52-56
150	158	'branch'	94	1	0.6798437233		16.5079212200		29.0759607500		'dc 94'
	% line 52-60
151	160	'branch'	95	1	0.3611152667		15.4137592300		15.4899278600		'dc 95'
	% line 53-62
151	236	'branch'	96	1	0.3408035467		-14.2320604300		14.6159602400		'dc 96'
	% line 53-138
151	236	'branch'	97	1	0.3408035467		-14.2320604300		14.6159602400		'dc 97'
	% line 53-138-2
152	158	'branch'	98	1	0.7495680567		-18.7549152400		32.0608159800		'dc 98'
	% line 54-60
153	236	'branch'	100	1	1.3715236067		-14.1691246000		58.5924734000		'dc 100'
	% line 55-138
154	156	'branch'	101	1	1.0994453433		23.9806404100		47.0113776300		'dc 101'
	% line 56-58
154	161	'branch'	102	1	0.3628992600		-6.4616861300		15.5108365100		'dc 102'
	% line 56-63
155	157	'branch'	103	1	0.9679856300		41.0865593000		41.5196910500		'dc 103'
	% line 57-59
155	188	'branch'	104	1	1.0438123000		-41.6770095800		44.7503248800		'dc 104'
	% line 57-90
157	236	'branch'	105	1	0.2651735933		10.9010286300		11.3709922400		'dc 105'
	% line 59-138
159	160	'branch'	106	1	0.5701833800		-8.9566144900		24.3652913700		'dc 106'
	% line 61-62
160	162	'branch'	107	1	0.2491635733		6.6608142900		10.6595449200		'dc 107'
	% line 62-64
161	162	'branch'	108	1	0.2455831033		-9.1231842000		10.5231731200		'dc 108'
	% line 63-64
163	171	'branch'	111	1	0.8214468667		-34.0981712300		35.2276661200		'dc 111'
	% line 65-73
163	181	'branch'	112	1	0.8859367300		37.8506202700		38.0025027700		'dc 112'
	% line 65-83
163	184	'branch'	113	1	0.8310333800		16.8820724500		35.5264636000		'dc 113'
	% line 65-86
164	165	'branch'	114	1	0.6876418867		-3.6400802100		29.3674479700		'dc 114'
	% line 66-67
164	169	'branch'	115	1	0.3737165667		-7.8259134300		15.9760058100		'dc 115'
	% line 66-71
165	173	'branch'	116	1	0.9301925967		-24.6831436200		39.7915189800		'dc 116'
	% line 67-75
165	234	'branch'	117	1	0.7169478967		29.0414600400		30.7394269000		'dc 117'
	% line 67-136
165	234	'branch'	118	1	0.7169478967		29.0414600400		30.7394269000		'dc 118'
	% line 67-136-2
166	171	'branch'	119	1	0.9754844167		-11.2465105100		41.6762636400		'dc 119'
	% line 68-73
166	183	'branch'	120	1	0.9860078833		42.1742630000		42.2964882600		'dc 120'
	% line 68-85
167	168	'branch'	121	1	1.0248330533		-24.3823528300		43.8253751700		'dc 121'
	% line 69-70
167	185	'branch'	122	1	0.9545893967		40.9278373700		40.9470612300		'dc 122'
	% line 69-87
168	170	'branch'	123	1	1.3759228333		-26.4591198000		58.8105326400		'dc 123'
	% line 70-72
168	234	'branch'	124	1	0.2968147867		-10.8505048800		12.7167404500		'dc 124'
	% line 70-136
...